11228183
     RDKit          3D

101106  0  0  1  0  0  0  0  0999 V2000
   10.6581   -4.4802   -0.3409 Cl  0  0  0  0  0  0  0  0  0  0  0  0
   -3.2030   -0.5940    4.2752 S   0  0  0  0  0  0  0  0  0  0  0  0
   -6.1931    1.1808   -3.2269 S   0  0  0  0  0  0  0  0  0  0  0  0
   -2.1372    1.3652    2.1904 O   0  0  0  0  0  0  0  0  0  0  0  0
   -3.0994   -1.7899    5.0862 O   0  0  0  0  0  0  0  0  0  0  0  0
   -3.7414    0.6293    4.8238 O   0  0  0  0  0  0  0  0  0  0  0  0
   -3.6135   -4.5030    0.5539 O   0  0  0  0  0  0  0  0  0  0  0  0
   -5.8087   -4.6753    0.6211 O   0  0  0  0  0  0  0  0  0  0  0  0
    6.9355    1.9408    0.6708 N   0  0  0  0  0  0  0  0  0  0  0  0
    4.2372    1.0353    1.4134 N   0  0  0  0  0  0  0  0  0  0  0  0
   -6.2421   -2.0640   -0.7019 N   0  0  0  0  0  0  0  0  0  0  0  0
   -8.8407   -3.3311   -0.8535 N   0  0  0  0  0  0  0  0  0  0  0  0
   -1.6667   -0.3151    3.7066 N   0  0  0  0  0  0  0  0  0  0  0  0
   -4.7502   -4.0424    0.7410 N   0  0  0  0  0  0  0  0  0  0  0  0
    6.1423    1.0274   -0.1858 C   0  0  0  0  0  0  0  0  0  0  0  0
    6.5362    1.7292    2.0808 C   0  0  0  0  0  0  0  0  0  0  0  0
    4.6196    1.2235   -0.0031 C   0  0  0  0  0  0  0  0  0  0  0  0
    5.0184    1.9171    2.3155 C   0  0  0  0  0  0  0  0  0  0  0  0
    8.3822    1.6985    0.5133 C   0  0  0  0  0  0  0  0  0  0  0  0
    2.8717    0.9731    1.7262 C   0  0  0  0  0  0  0  0  0  0  0  0
    8.9188    2.1364   -0.8406 C   0  0  0  0  0  0  0  0  0  0  0  0
    9.6179    1.2623   -1.7039 C   0  0  0  0  0  0  0  0  0  0  0  0
    1.8553    1.3824    0.8527 C   0  0  0  0  0  0  0  0  0  0  0  0
    2.4741    0.4476    2.9678 C   0  0  0  0  0  0  0  0  0  0  0  0
    8.7274    3.4771   -1.2326 C   0  0  0  0  0  0  0  0  0  0  0  0
   -6.8318   -1.0580   -1.6098 C   0  0  2  0  0  0  0  0  0  0  0  0
    0.5029    1.2871    1.2076 C   0  0  0  0  0  0  0  0  0  0  0  0
    1.1257    0.3424    3.3331 C   0  0  0  0  0  0  0  0  0  0  0  0
   -7.8411   -1.7587   -2.5544 C   0  0  0  0  0  0  0  0  0  0  0  0
    0.1297    0.7608    2.4479 C   0  0  0  0  0  0  0  0  0  0  0  0
    9.8739   -0.1446   -1.3720 C   0  0  0  0  0  0  0  0  0  0  0  0
   10.0901    1.7582   -2.9345 C   0  0  0  0  0  0  0  0  0  0  0  0
    9.2037    3.9469   -2.4554 C   0  0  0  0  0  0  0  0  0  0  0  0
   -9.1042   -2.2666   -1.8378 C   0  0  0  0  0  0  0  0  0  0  0  0
   -5.6990   -0.4011   -2.4377 C   0  0  0  0  0  0  0  0  0  0  0  0
    9.8851    3.0868   -3.3077 C   0  0  0  0  0  0  0  0  0  0  0  0
   -5.5815   -1.7156    0.4832 C   0  0  0  0  0  0  0  0  0  0  0  0
   -1.3221    0.6570    2.7598 C   0  0  0  0  0  0  0  0  0  0  0  0
    8.9867   -1.1504   -1.7869 C   0  0  0  0  0  0  0  0  0  0  0  0
   11.0142   -0.5107   -0.6393 C   0  0  0  0  0  0  0  0  0  0  0  0
   -4.1149   -1.0329    2.8197 C   0  0  0  0  0  0  0  0  0  0  0  0
   -4.8313   -2.6675    1.2073 C   0  0  0  0  0  0  0  0  0  0  0  0
   -5.6002   -0.4158    1.0108 C   0  0  0  0  0  0  0  0  0  0  0  0
   -4.0967   -2.3473    2.3610 C   0  0  0  0  0  0  0  0  0  0  0  0
   -4.8852   -0.0736    2.1663 C   0  0  0  0  0  0  0  0  0  0  0  0
   -8.5709   -4.6190   -1.5082 C   0  0  0  0  0  0  0  0  0  0  0  0
   -9.9871   -3.4812    0.0488 C   0  0  0  0  0  0  0  0  0  0  0  0
    9.2274   -2.4894   -1.4680 C   0  0  0  0  0  0  0  0  0  0  0  0
   11.2569   -1.8494   -0.3202 C   0  0  0  0  0  0  0  0  0  0  0  0
   10.3612   -2.8322   -0.7351 C   0  0  0  0  0  0  0  0  0  0  0  0
   -6.0919    2.2720   -1.8192 C   0  0  0  0  0  0  0  0  0  0  0  0
   -4.8773    2.4989   -1.1630 C   0  0  0  0  0  0  0  0  0  0  0  0
   -7.2464    2.9158   -1.3648 C   0  0  0  0  0  0  0  0  0  0  0  0
   -4.8252    3.3286   -0.0410 C   0  0  0  0  0  0  0  0  0  0  0  0
   -7.1928    3.7508   -0.2462 C   0  0  0  0  0  0  0  0  0  0  0  0
   -5.9839    3.9515    0.4185 C   0  0  0  0  0  0  0  0  0  0  0  0
   -6.9424   -2.8005   -0.4970 H   0  0  0  0  0  0  0  0  0  0  0  0
   -1.0082   -1.0229    4.0125 H   0  0  0  0  0  0  0  0  0  0  0  0
    6.3728    1.2049   -1.2424 H   0  0  0  0  0  0  0  0  0  0  0  0
    6.3952   -0.0182    0.0363 H   0  0  0  0  0  0  0  0  0  0  0  0
    6.8210    0.7198    2.4077 H   0  0  0  0  0  0  0  0  0  0  0  0
    7.0680    2.4435    2.7209 H   0  0  0  0  0  0  0  0  0  0  0  0
    4.1051    0.4888   -0.6346 H   0  0  0  0  0  0  0  0  0  0  0  0
    4.3445    2.2300   -0.3448 H   0  0  0  0  0  0  0  0  0  0  0  0
    4.8168    1.6983    3.3702 H   0  0  0  0  0  0  0  0  0  0  0  0
    4.7440    2.9652    2.1359 H   0  0  0  0  0  0  0  0  0  0  0  0
    8.6136    0.6501    0.7302 H   0  0  0  0  0  0  0  0  0  0  0  0
    8.9341    2.2860    1.2601 H   0  0  0  0  0  0  0  0  0  0  0  0
    2.0890    1.8031   -0.1211 H   0  0  0  0  0  0  0  0  0  0  0  0
    3.2295    0.0894    3.6646 H   0  0  0  0  0  0  0  0  0  0  0  0
    8.1908    4.1590   -0.5747 H   0  0  0  0  0  0  0  0  0  0  0  0
   -7.3888   -0.3124   -1.0323 H   0  0  0  0  0  0  0  0  0  0  0  0
   -0.2542    1.6249    0.5019 H   0  0  0  0  0  0  0  0  0  0  0  0
    0.8912   -0.0445    4.3201 H   0  0  0  0  0  0  0  0  0  0  0  0
   -7.3510   -2.5776   -3.0945 H   0  0  0  0  0  0  0  0  0  0  0  0
   -8.1743   -1.0467   -3.3193 H   0  0  0  0  0  0  0  0  0  0  0  0
   10.6292    1.0992   -3.6134 H   0  0  0  0  0  0  0  0  0  0  0  0
    9.0408    4.9830   -2.7400 H   0  0  0  0  0  0  0  0  0  0  0  0
   -9.8365   -2.6034   -2.5831 H   0  0  0  0  0  0  0  0  0  0  0  0
   -9.5547   -1.4022   -1.3321 H   0  0  0  0  0  0  0  0  0  0  0  0
   -4.8041   -0.2275   -1.8324 H   0  0  0  0  0  0  0  0  0  0  0  0
   -5.3861   -1.0803   -3.2397 H   0  0  0  0  0  0  0  0  0  0  0  0
   10.2590    3.4474   -4.2622 H   0  0  0  0  0  0  0  0  0  0  0  0
    8.1001   -0.8902   -2.3619 H   0  0  0  0  0  0  0  0  0  0  0  0
   11.7199    0.2515   -0.3141 H   0  0  0  0  0  0  0  0  0  0  0  0
   -6.1747    0.3777    0.5433 H   0  0  0  0  0  0  0  0  0  0  0  0
   -3.5214   -3.1108    2.8804 H   0  0  0  0  0  0  0  0  0  0  0  0
   -4.9194    0.9533    2.5292 H   0  0  0  0  0  0  0  0  0  0  0  0
   -7.6703   -4.5686   -2.1277 H   0  0  0  0  0  0  0  0  0  0  0  0
   -8.3831   -5.3965   -0.7590 H   0  0  0  0  0  0  0  0  0  0  0  0
   -9.4068   -4.9449   -2.1376 H   0  0  0  0  0  0  0  0  0  0  0  0
   -9.7860   -4.2504    0.8030 H   0  0  0  0  0  0  0  0  0  0  0  0
  -10.9034   -3.7523   -0.4882 H   0  0  0  0  0  0  0  0  0  0  0  0
  -10.1690   -2.5500    0.5968 H   0  0  0  0  0  0  0  0  0  0  0  0
    8.5294   -3.2555   -1.7948 H   0  0  0  0  0  0  0  0  0  0  0  0
   12.1437   -2.1158    0.2484 H   0  0  0  0  0  0  0  0  0  0  0  0
   -3.9613    2.0277   -1.5105 H   0  0  0  0  0  0  0  0  0  0  0  0
   -8.1967    2.7692   -1.8723 H   0  0  0  0  0  0  0  0  0  0  0  0
   -3.8808    3.4832    0.4766 H   0  0  0  0  0  0  0  0  0  0  0  0
   -8.0947    4.2447    0.1065 H   0  0  0  0  0  0  0  0  0  0  0  0
   -5.9424    4.5974    1.2923 H   0  0  0  0  0  0  0  0  0  0  0  0
  1 50  1  0
  2  5  2  0
  2  6  2  0
  2 13  1  0
  2 41  1  0
  3 35  1  0
  3 51  1  0
  4 38  2  0
  7 14  1  0
  8 14  2  0
  9 15  1  0
  9 16  1  0
  9 19  1  0
 10 17  1  0
 10 18  1  0
 10 20  1  0
 26 11  1  0
 11 37  1  0
 12 34  1  0
 12 46  1  0
 12 47  1  0
 13 38  1  0
 14 42  1  0
 15 17  1  0
 16 18  1  0
 19 21  1  0
 20 23  2  0
 20 24  1  0
 21 22  1  0
 21 25  2  0
 22 31  1  0
 22 32  2  0
 23 27  1  0
 24 28  2  0
 25 33  1  0
 26 29  1  0
 26 35  1  0
 27 30  2  0
 28 30  1  0
 29 34  1  0
 30 38  1  0
 31 39  2  0
 31 40  1  0
 32 36  1  0
 33 36  2  0
 37 42  2  0
 37 43  1  0
 39 48  1  0
 40 49  2  0
 41 44  2  0
 41 45  1  0
 42 44  1  0
 43 45  2  0
 48 50  2  0
 49 50  1  0
 51 52  2  0
 51 53  1  0
 52 54  1  0
 53 55  2  0
 54 56  2  0
 55 56  1  0
 11 57  1  0
 13 58  1  0
 15 59  1  0
 15 60  1  0
 16 61  1  0
 16 62  1  0
 17 63  1  0
 17 64  1  0
 18 65  1  0
 18 66  1  0
 19 67  1  0
 19 68  1  0
 23 69  1  0
 24 70  1  0
 25 71  1  0
 26 72  1  1
 27 73  1  0
 28 74  1  0
 29 75  1  0
 29 76  1  0
 32 77  1  0
 33 78  1  0
 34 79  1  0
 34 80  1  0
 35 81  1  0
 35 82  1  0
 36 83  1  0
 39 84  1  0
 40 85  1  0
 43 86  1  0
 44 87  1  0
 45 88  1  0
 46 89  1  0
 46 90  1  0
 46 91  1  0
 47 92  1  0
 47 93  1  0
 47 94  1  0
 48 95  1  0
 49 96  1  0
 52 97  1  0
 53 98  1  0
 54 99  1  0
 55100  1  0
 56101  1  0
M  CHG  2   7  -1  14   1
M  END
>  <PUBCHEM_COMPOUND_CID>  (1) 
11228183

>  <PUBCHEM_COMPOUND_CANONICALIZED>  (1) 
1

>  <PUBCHEM_CACTVS_COMPLEXITY>  (1) 
1320

>  <PUBCHEM_CACTVS_HBOND_ACCEPTOR>  (1) 
10

>  <PUBCHEM_CACTVS_HBOND_DONOR>  (1) 
2

>  <PUBCHEM_CACTVS_ROTATABLE_BOND>  (1) 
15

>  <PUBCHEM_CACTVS_SUBSKEYS>  (1) 
AAADcfB/uABkAAAAAAAAAAAAAAAAAAAAAAA8YMGDAAAAAAABVAAAHgYUQAAADCrF2CSywYPQQAqJAiVSU3DCABAlDxAoiJkIdsoIYDLh15GUIQxgkIDoyYcYicCejAQAACAQACAYCAAAQCAAQAAAAAAAAA==

>  <PUBCHEM_IUPAC_OPENEYE_NAME>  (1) 
4-[4-[[2-(4-chlorophenyl)phenyl]methyl]piperazin-1-yl]-N-[4-[[(1R)-3-(dimethylamino)-1-(phenylsulfanylmethyl)propyl]amino]-3-nitro-phenyl]sulfonyl-benzamide

>  <PUBCHEM_IUPAC_CAS_NAME>  (1) 
4-[4-[[2-(4-chlorophenyl)phenyl]methyl]-1-piperazinyl]-N-[4-[[(2R)-4-(dimethylamino)-1-(phenylthio)butan-2-yl]amino]-3-nitrophenyl]sulfonylbenzamide

>  <PUBCHEM_IUPAC_NAME_MARKUP>  (1) 
4-[4-[[2-(4-chlorophenyl)phenyl]methyl]piperazin-1-yl]-<I>N</I>-[4-[[(2<I>R</I>)-4-(dimethylamino)-1-phenylsulfanylbutan-2-yl]amino]-3-nitrophenyl]sulfonylbenzamide

>  <PUBCHEM_IUPAC_NAME>  (1) 
4-[4-[[2-(4-chlorophenyl)phenyl]methyl]piperazin-1-yl]-N-[4-[[(2R)-4-(dimethylamino)-1-phenylsulfanylbutan-2-yl]amino]-3-nitrophenyl]sulfonylbenzamide

>  <PUBCHEM_IUPAC_SYSTEMATIC_NAME>  (1) 
4-[4-[[2-(4-chlorophenyl)phenyl]methyl]piperazin-1-yl]-N-[4-[[(2R)-4-(dimethylamino)-1-phenylsulfanyl-butan-2-yl]amino]-3-nitro-phenyl]sulfonyl-benzamide

>  <PUBCHEM_IUPAC_TRADITIONAL_NAME>  (1) 
4-[4-[2-(4-chlorophenyl)benzyl]piperazino]-N-[4-[[(1R)-3-(dimethylamino)-1-[(phenylthio)methyl]propyl]amino]-3-nitro-phenyl]sulfonyl-benzamide

>  <PUBCHEM_IUPAC_INCHI>  (1) 
InChI=1S/C42H45ClN6O5S2/c1-46(2)23-22-35(30-55-37-9-4-3-5-10-37)44-40-21-20-38(28-41(40)49(51)52)56(53,54)45-42(50)32-14-18-36(19-15-32)48-26-24-47(25-27-48)29-33-8-6-7-11-39(33)31-12-16-34(43)17-13-31/h3-21,28,35,44H,22-27,29-30H2,1-2H3,(H,45,50)/t35-/m1/s1

>  <PUBCHEM_IUPAC_INCHIKEY>  (1) 
HPLNQCPCUACXLM-PGUFJCEWSA-N

>  <PUBCHEM_XLOGP3_AA>  (1) 
9

>  <PUBCHEM_EXACT_MASS>  (1) 
812.2581386

>  <PUBCHEM_MOLECULAR_FORMULA>  (1) 
C42H45ClN6O5S2

>  <PUBCHEM_MOLECULAR_WEIGHT>  (1) 
813.4

>  <PUBCHEM_SMILES>  (1) 
CN(C)CC[C@H](CSC1=CC=CC=C1)NC2=C(C=C(C=C2)S(=O)(=O)NC(=O)C3=CC=C(C=C3)N4CCN(CC4)CC5=CC=CC=C5C6=CC=C(C=C6)Cl)[N+](=O)[O-]

>  <PUBCHEM_CONNECTIVITY_SMILES>  (1) 
CN(C)CCC(CSC1=CC=CC=C1)NC2=C(C=C(C=C2)S(=O)(=O)NC(=O)C3=CC=C(C=C3)N4CCN(CC4)CC5=CC=CC=C5C6=CC=C(C=C6)Cl)[N+](=O)[O-]

>  <PUBCHEM_CACTVS_TPSA>  (1) 
164

>  <PUBCHEM_MONOISOTOPIC_WEIGHT>  (1) 
812.2581386

>  <PUBCHEM_TOTAL_CHARGE>  (1) 
0

>  <PUBCHEM_HEAVY_ATOM_COUNT>  (1) 
56

>  <PUBCHEM_ATOM_DEF_STEREO_COUNT>  (1) 
1

>  <PUBCHEM_ATOM_UDEF_STEREO_COUNT>  (1) 
0

>  <PUBCHEM_BOND_DEF_STEREO_COUNT>  (1) 
0

>  <PUBCHEM_BOND_UDEF_STEREO_COUNT>  (1) 
0

>  <PUBCHEM_ISOTOPIC_ATOM_COUNT>  (1) 
0

>  <PUBCHEM_COMPONENT_COUNT>  (1) 
1

>  <PUBCHEM_CACTVS_TAUTO_COUNT>  (1) 
-1

>  <PUBCHEM_COORDINATE_TYPE>  (1) 
1
5
255

>  <PUBCHEM_BONDANNOTATIONS>  (1) 
26  11  6
20  23  8
20  24  8
21  22  8
21  25  8
22  32  8
23  27  8
24  28  8
25  33  8
27  30  8
28  30  8
31  39  8
31  40  8
32  36  8
33  36  8
37  42  8
37  43  8
39  48  8
40  49  8
41  44  8
41  45  8
42  44  8
43  45  8
48  50  8
49  50  8
51  52  8
51  53  8
52  54  8
53  55  8
54  56  8
55  56  8

>  <source_file>  (1) 
structures/raw/abt737_pubchem_cid11228183_2d.sdf

>  <prep_method>  (1) 
RDKit ETKDGv3 + MMFF94

>  <rdkit_version>  (1) 
2024.03.2

>  <random_seed>  (1) 
20260924

>  <conformers_requested>  (1) 
200

>  <num_conformers_generated>  (1) 
197

>  <num_conformers_converged>  (1) 
197

>  <selected_conf_id>  (1) 
135

>  <selected_energy_kcal_mol>  (1) 
144.688178

>  <formula>  (1) 
C42H45ClN6O5S2

>  <canonical_smiles_noH>  (1) 
CN(C)CC[C@H](CSc1ccccc1)Nc1ccc(S(=O)(=O)NC(=O)c2ccc(N3CCN(Cc4ccccc4-c4ccc(Cl)cc4)CC3)cc2)cc1[N+](=O)[O-]

$$$$
