176870
 OpenBabel09182620113D

 52 54  0  0  0  0  0  0  0  0999 V2000
   -2.4643   -1.4717   -0.9562 O   0  0  0  0  0  0  0  0  0  0  0  0
   -3.7786    0.7752   -0.2304 O   0  0  0  0  0  0  0  0  0  0  0  0
   -4.3490   -2.7208    0.7690 O   0  0  0  0  0  0  0  0  0  0  0  0
   -6.6045    1.0226    0.1121 O   0  0  0  0  0  0  0  0  0  0  0  0
    2.4654   -0.2202   -1.0474 N   0  0  0  0  0  0  0  0  0  0  0  0
    0.3356    3.2078   -0.0843 N   0  0  0  0  0  0  0  0  0  0  0  0
    2.4137    2.0988   -0.4699 N   0  0  0  0  0  0  0  0  0  0  0  0
    0.3545    0.8708   -0.6289 C   0  0  0  0  0  0  0  0  0  0  0  0
   -0.3090    2.0570   -0.3012 C   0  0  0  0  0  0  0  0  0  0  0  0
   -1.7533   -0.3306   -0.7007 C   0  0  0  0  0  0  0  0  0  0  0  0
   -2.4210    0.8487   -0.3671 C   0  0  0  0  0  0  0  0  0  0  0  0
   -0.3738   -0.3204   -0.8368 C   0  0  0  0  0  0  0  0  0  0  0  0
    1.7500    0.9531   -0.7095 C   0  0  0  0  0  0  0  0  0  0  0  0
   -1.6900    2.0306   -0.1899 C   0  0  0  0  0  0  0  0  0  0  0  0
   -2.1058   -2.5607   -0.0896 C   0  0  0  0  0  0  0  0  0  0  0  0
    3.7927   -0.5527   -0.7391 C   0  0  0  0  0  0  0  0  0  0  0  0
   -4.3656    1.7331    0.6567 C   0  0  0  0  0  0  0  0  0  0  0  0
    1.6696    3.1727   -0.1787 C   0  0  0  0  0  0  0  0  0  0  0  0
   -3.3304   -3.4560    0.0856 C   0  0  0  0  0  0  0  0  0  0  0  0
   -5.6737    1.1622    1.1870 C   0  0  0  0  0  0  0  0  0  0  0  0
    4.3861   -0.1619    0.4655 C   0  0  0  0  0  0  0  0  0  0  0  0
    4.5193   -1.3708   -1.6154 C   0  0  0  0  0  0  0  0  0  0  0  0
    5.6802   -0.5772    0.7901 C   0  0  0  0  0  0  0  0  0  0  0  0
    5.8157   -1.7787   -1.3016 C   0  0  0  0  0  0  0  0  0  0  0  0
    6.3923   -1.3830   -0.0945 C   0  0  0  0  0  0  0  0  0  0  0  0
   -5.5521   -3.4614    0.8835 C   0  0  0  0  0  0  0  0  0  0  0  0
   -7.8126    0.4226    0.5489 C   0  0  0  0  0  0  0  0  0  0  0  0
    6.2640   -0.1829    2.0317 C   0  0  0  0  0  0  0  0  0  0  0  0
    6.7481    0.1505    3.0824 C   0  0  0  0  0  0  0  0  0  0  0  0
    0.1357   -1.2425   -1.0986 H   0  0  0  0  0  0  0  0  0  0  0  0
   -2.1926    2.9656    0.0404 H   0  0  0  0  0  0  0  0  0  0  0  0
    2.1322   -0.6076   -1.9214 H   0  0  0  0  0  0  0  0  0  0  0  0
   -1.7763   -2.1981    0.8926 H   0  0  0  0  0  0  0  0  0  0  0  0
   -1.2983   -3.1372   -0.5567 H   0  0  0  0  0  0  0  0  0  0  0  0
   -3.7121    1.9304    1.5158 H   0  0  0  0  0  0  0  0  0  0  0  0
   -4.5526    2.6600    0.1028 H   0  0  0  0  0  0  0  0  0  0  0  0
    2.1964    4.1042   -0.0048 H   0  0  0  0  0  0  0  0  0  0  0  0
   -3.7017   -3.7798   -0.8938 H   0  0  0  0  0  0  0  0  0  0  0  0
   -3.0670   -4.3348    0.6844 H   0  0  0  0  0  0  0  0  0  0  0  0
   -5.4909    0.1844    1.6479 H   0  0  0  0  0  0  0  0  0  0  0  0
   -6.0935    1.8459    1.9328 H   0  0  0  0  0  0  0  0  0  0  0  0
    3.8252    0.4466    1.1718 H   0  0  0  0  0  0  0  0  0  0  0  0
    4.0826   -1.6922   -2.5564 H   0  0  0  0  0  0  0  0  0  0  0  0
    6.3705   -2.4061   -1.9929 H   0  0  0  0  0  0  0  0  0  0  0  0
    7.3996   -1.7114    0.1497 H   0  0  0  0  0  0  0  0  0  0  0  0
   -6.3003   -2.8240    1.3615 H   0  0  0  0  0  0  0  0  0  0  0  0
   -5.3881   -4.3418    1.5105 H   0  0  0  0  0  0  0  0  0  0  0  0
   -5.9256   -3.7603   -0.1009 H   0  0  0  0  0  0  0  0  0  0  0  0
   -7.6219   -0.5572    0.9977 H   0  0  0  0  0  0  0  0  0  0  0  0
   -8.3137    1.0762    1.2682 H   0  0  0  0  0  0  0  0  0  0  0  0
   -8.4620    0.2891   -0.3195 H   0  0  0  0  0  0  0  0  0  0  0  0
    7.1734    0.4487    4.0106 H   0  0  0  0  0  0  0  0  0  0  0  0
  1 10  1  0  0  0  0
  1 15  1  0  0  0  0
  2 11  1  0  0  0  0
  2 17  1  0  0  0  0
  3 19  1  0  0  0  0
  3 26  1  0  0  0  0
  4 20  1  0  0  0  0
  4 27  1  0  0  0  0
  5 13  1  0  0  0  0
  5 16  1  0  0  0  0
  5 32  1  0  0  0  0
  6  9  1  0  0  0  0
  6 18  2  0  0  0  0
  7 13  2  0  0  0  0
  7 18  1  0  0  0  0
  8  9  1  0  0  0  0
  8 12  2  0  0  0  0
  8 13  1  0  0  0  0
  9 14  2  0  0  0  0
 10 11  2  0  0  0  0
 10 12  1  0  0  0  0
 11 14  1  0  0  0  0
 12 30  1  0  0  0  0
 14 31  1  0  0  0  0
 15 19  1  0  0  0  0
 15 33  1  0  0  0  0
 15 34  1  0  0  0  0
 16 21  1  0  0  0  0
 16 22  2  0  0  0  0
 17 20  1  0  0  0  0
 17 35  1  0  0  0  0
 17 36  1  0  0  0  0
 18 37  1  0  0  0  0
 19 38  1  0  0  0  0
 19 39  1  0  0  0  0
 20 40  1  0  0  0  0
 20 41  1  0  0  0  0
 21 23  2  0  0  0  0
 21 42  1  0  0  0  0
 22 24  1  0  0  0  0
 22 43  1  0  0  0  0
 23 25  1  0  0  0  0
 23 28  1  0  0  0  0
 24 25  2  0  0  0  0
 24 44  1  0  0  0  0
 25 45  1  0  0  0  0
 26 46  1  0  0  0  0
 26 47  1  0  0  0  0
 26 48  1  0  0  0  0
 27 49  1  0  0  0  0
 27 50  1  0  0  0  0
 27 51  1  0  0  0  0
 28 29  3  0  0  0  0
 29 52  1  0  0  0  0
M  END
