123631
 OpenBabel09212614253D

 55 58  0  0  0  0  0  0  0  0999 V2000
   -5.7583    0.4075    2.1868 Cl  0  0  0  0  0  0  0  0  0  0  0  0
   -6.5236   -0.4336   -0.5638 F   0  0  0  0  0  0  0  0  0  0  0  0
   -1.6522    3.9158   -1.2832 O   0  0  0  0  0  0  0  0  0  0  0  0
    3.5272    0.9396    0.8645 O   0  0  0  0  0  0  0  0  0  0  0  0
    5.2364   -1.0049   -0.2556 O   0  0  0  0  0  0  0  0  0  0  0  0
    0.8111    3.1883    0.0743 N   0  0  0  0  0  0  0  0  0  0  0  0
   -1.1380   -1.1268    0.6022 N   0  0  0  0  0  0  0  0  0  0  0  0
    1.5747   -3.9386   -0.8080 N   0  0  0  0  0  0  0  0  0  0  0  0
   -0.6650   -3.2724   -0.3222 N   0  0  0  0  0  0  0  0  0  0  0  0
    1.8876    3.4383    1.0451 C   0  0  0  0  0  0  0  0  0  0  0  0
   -0.5083    3.1502    0.7439 C   0  0  0  0  0  0  0  0  0  0  0  0
    0.7634    4.2118   -0.9925 C   0  0  0  0  0  0  0  0  0  0  0  0
    3.2999    3.2947    0.4535 C   0  0  0  0  0  0  0  0  0  0  0  0
   -1.6367    2.9011   -0.2708 C   0  0  0  0  0  0  0  0  0  0  0  0
   -0.3938    3.9417   -1.9674 C   0  0  0  0  0  0  0  0  0  0  0  0
    3.5518    1.9246   -0.1763 C   0  0  0  0  0  0  0  0  0  0  0  0
    3.0482   -0.2529    0.3990 C   0  0  0  0  0  0  0  0  0  0  0  0
    1.1553   -1.7482    0.0797 C   0  0  0  0  0  0  0  0  0  0  0  0
    1.6864   -0.5039    0.4919 C   0  0  0  0  0  0  0  0  0  0  0  0
    3.8991   -1.2397   -0.0848 C   0  0  0  0  0  0  0  0  0  0  0  0
    2.0161   -2.7409   -0.4126 C   0  0  0  0  0  0  0  0  0  0  0  0
    3.3767   -2.4662   -0.4970 C   0  0  0  0  0  0  0  0  0  0  0  0
   -0.2114   -2.0776    0.0972 C   0  0  0  0  0  0  0  0  0  0  0  0
   -2.5151   -1.0301    0.3215 C   0  0  0  0  0  0  0  0  0  0  0  0
    0.2545   -4.1470   -0.7405 C   0  0  0  0  0  0  0  0  0  0  0  0
    5.9433   -1.2650    0.9555 C   0  0  0  0  0  0  0  0  0  0  0  0
   -3.3752   -0.4635    1.2742 C   0  0  0  0  0  0  0  0  0  0  0  0
   -3.0399   -1.3655   -0.9359 C   0  0  0  0  0  0  0  0  0  0  0  0
   -4.7292   -0.2737    0.9856 C   0  0  0  0  0  0  0  0  0  0  0  0
   -4.3917   -1.1661   -1.2293 C   0  0  0  0  0  0  0  0  0  0  0  0
   -5.2304   -0.6235   -0.2642 C   0  0  0  0  0  0  0  0  0  0  0  0
    1.7847    4.4366    1.4898 H   0  0  0  0  0  0  0  0  0  0  0  0
    1.7970    2.7213    1.8716 H   0  0  0  0  0  0  0  0  0  0  0  0
   -0.5279    2.3487    1.4915 H   0  0  0  0  0  0  0  0  0  0  0  0
   -0.6934    4.1012    1.2602 H   0  0  0  0  0  0  0  0  0  0  0  0
    0.6364    5.2078   -0.5491 H   0  0  0  0  0  0  0  0  0  0  0  0
    1.6928    4.2120   -1.5703 H   0  0  0  0  0  0  0  0  0  0  0  0
    3.4880    4.0805   -0.2856 H   0  0  0  0  0  0  0  0  0  0  0  0
    4.0192    3.4493    1.2677 H   0  0  0  0  0  0  0  0  0  0  0  0
   -1.5336    1.9181   -0.7459 H   0  0  0  0  0  0  0  0  0  0  0  0
   -2.6058    2.9256    0.2372 H   0  0  0  0  0  0  0  0  0  0  0  0
   -0.4385    4.7379   -2.7169 H   0  0  0  0  0  0  0  0  0  0  0  0
   -0.2492    2.9927   -2.4985 H   0  0  0  0  0  0  0  0  0  0  0  0
    2.8206    1.7245   -0.9705 H   0  0  0  0  0  0  0  0  0  0  0  0
    4.5497    1.9131   -0.6300 H   0  0  0  0  0  0  0  0  0  0  0  0
    1.0353    0.2848    0.8624 H   0  0  0  0  0  0  0  0  0  0  0  0
    4.0457   -3.2242   -0.8961 H   0  0  0  0  0  0  0  0  0  0  0  0
   -0.9065   -0.9255    1.5699 H   0  0  0  0  0  0  0  0  0  0  0  0
   -0.1031   -5.1228   -1.0527 H   0  0  0  0  0  0  0  0  0  0  0  0
   -2.9952   -0.1730    2.2496 H   0  0  0  0  0  0  0  0  0  0  0  0
   -2.3912   -1.7707   -1.7100 H   0  0  0  0  0  0  0  0  0  0  0  0
    6.9941   -1.0087    0.7894 H   0  0  0  0  0  0  0  0  0  0  0  0
    5.5733   -0.6524    1.7845 H   0  0  0  0  0  0  0  0  0  0  0  0
    5.8903   -2.3287    1.2141 H   0  0  0  0  0  0  0  0  0  0  0  0
   -4.7884   -1.4217   -2.2067 H   0  0  0  0  0  0  0  0  0  0  0  0
  1 29  1  0  0  0  0
  2 31  1  0  0  0  0
  3 14  1  0  0  0  0
  3 15  1  0  0  0  0
  4 16  1  0  0  0  0
  4 17  1  0  0  0  0
  5 20  1  0  0  0  0
  5 26  1  0  0  0  0
  6 10  1  0  0  0  0
  6 11  1  0  0  0  0
  6 12  1  0  0  0  0
  7 23  1  0  0  0  0
  7 24  1  0  0  0  0
  7 48  1  0  0  0  0
  8 21  1  0  0  0  0
  8 25  2  0  0  0  0
  9 23  2  0  0  0  0
  9 25  1  0  0  0  0
 10 13  1  0  0  0  0
 10 32  1  0  0  0  0
 10 33  1  0  0  0  0
 11 14  1  0  0  0  0
 11 34  1  0  0  0  0
 11 35  1  0  0  0  0
 12 15  1  0  0  0  0
 12 36  1  0  0  0  0
 12 37  1  0  0  0  0
 13 16  1  0  0  0  0
 13 38  1  0  0  0  0
 13 39  1  0  0  0  0
 14 40  1  0  0  0  0
 14 41  1  0  0  0  0
 15 42  1  0  0  0  0
 15 43  1  0  0  0  0
 16 44  1  0  0  0  0
 16 45  1  0  0  0  0
 17 19  1  0  0  0  0
 17 20  2  0  0  0  0
 18 19  2  0  0  0  0
 18 21  1  0  0  0  0
 18 23  1  0  0  0  0
 19 46  1  0  0  0  0
 20 22  1  0  0  0  0
 21 22  2  0  0  0  0
 22 47  1  0  0  0  0
 24 27  2  0  0  0  0
 24 28  1  0  0  0  0
 25 49  1  0  0  0  0
 26 52  1  0  0  0  0
 26 53  1  0  0  0  0
 26 54  1  0  0  0  0
 27 29  1  0  0  0  0
 27 50  1  0  0  0  0
 28 30  2  0  0  0  0
 28 51  1  0  0  0  0
 29 31  2  0  0  0  0
 30 31  1  0  0  0  0
 30 55  1  0  0  0  0
M  END
