49846579
     RDKit          3D

111118  0  0  0  0  0  0  0  0999 V2000
  -10.2449   -3.0579   -3.4947 Cl  0  0  0  0  0  0  0  0  0  0  0  0
    4.7693   -1.7558   -4.1255 S   0  0  0  0  0  0  0  0  0  0  0  0
   11.5348    3.1134    1.7197 O   0  0  0  0  0  0  0  0  0  0  0  0
    1.3661   -2.6840   -1.9936 O   0  0  0  0  0  0  0  0  0  0  0  0
    3.2648    0.7721   -3.2960 O   0  0  0  0  0  0  0  0  0  0  0  0
    5.0486   -0.8603   -5.2236 O   0  0  0  0  0  0  0  0  0  0  0  0
    4.9029   -3.1897   -4.2798 O   0  0  0  0  0  0  0  0  0  0  0  0
    7.2858   -2.5666    1.4864 O   0  0  0  0  0  0  0  0  0  0  0  0
    7.5619   -3.9923   -0.1656 O   0  0  0  0  0  0  0  0  0  0  0  0
   -5.0500    0.2731    0.6100 N   0  0  0  0  0  0  0  0  0  0  0  0
   -2.6254   -0.2458   -0.9756 N   0  0  0  0  0  0  0  0  0  0  0  0
    8.2053   -0.1354    0.5483 N   0  0  0  0  0  0  0  0  0  0  0  0
    3.2220   -1.5157   -3.5787 N   0  0  0  0  0  0  0  0  0  0  0  0
    7.2829   -2.8704    0.2810 N   0  0  0  0  0  0  0  0  0  0  0  0
    3.2474   -2.3981    1.2156 N   0  0  0  0  0  0  0  0  0  0  0  0
    4.5640   -4.1930    2.1219 N   0  0  0  0  0  0  0  0  0  0  0  0
   -9.2300    3.3394    1.5612 C   0  0  0  0  0  0  0  0  0  0  0  0
   -7.7268    3.5662    1.8024 C   0  0  0  0  0  0  0  0  0  0  0  0
   -9.3973    2.4621    0.2993 C   0  0  0  0  0  0  0  0  0  0  0  0
   -6.9410    2.2607    1.9549 C   0  0  0  0  0  0  0  0  0  0  0  0
   -7.3527    1.1551    0.9998 C   0  0  0  0  0  0  0  0  0  0  0  0
   -8.4780    1.2598    0.2544 C   0  0  0  0  0  0  0  0  0  0  0  0
   -6.4292   -0.0532    1.0071 C   0  0  0  0  0  0  0  0  0  0  0  0
   -9.9200    4.6959    1.3321 C   0  0  0  0  0  0  0  0  0  0  0  0
   -9.8893    2.6665    2.7818 C   0  0  0  0  0  0  0  0  0  0  0  0
   -4.1558   -0.8727    0.8920 C   0  0  0  0  0  0  0  0  0  0  0  0
   -4.9676    0.5887   -0.8351 C   0  0  0  0  0  0  0  0  0  0  0  0
   -8.9175    0.2005   -0.6682 C   0  0  0  0  0  0  0  0  0  0  0  0
   -2.6925   -0.6181    0.4599 C   0  0  0  0  0  0  0  0  0  0  0  0
   -3.5211    0.8888   -1.2913 C   0  0  0  0  0  0  0  0  0  0  0  0
   -9.6535   -0.8910   -0.1893 C   0  0  0  0  0  0  0  0  0  0  0  0
   -8.6009    0.2773   -2.0298 C   0  0  0  0  0  0  0  0  0  0  0  0
   -1.3287   -0.2365   -1.5062 C   0  0  0  0  0  0  0  0  0  0  0  0
  -10.0645   -1.8991   -1.0642 C   0  0  0  0  0  0  0  0  0  0  0  0
   -9.0114   -0.7314   -2.9044 C   0  0  0  0  0  0  0  0  0  0  0  0
    9.2504    1.3825    2.1819 C   0  0  0  0  0  0  0  0  0  0  0  0
   -0.5778   -1.4226   -1.5139 C   0  0  0  0  0  0  0  0  0  0  0  0
   -0.7311    0.8960   -2.0748 C   0  0  0  0  0  0  0  0  0  0  0  0
   -9.7406   -1.8150   -2.4173 C   0  0  0  0  0  0  0  0  0  0  0  0
    9.3181    2.8371    2.6731 C   0  0  0  0  0  0  0  0  0  0  0  0
   10.6798    0.8554    1.9708 C   0  0  0  0  0  0  0  0  0  0  0  0
    8.3794    1.2694    0.9129 C   0  0  0  0  0  0  0  0  0  0  0  0
   10.2346    3.6910    1.8039 C   0  0  0  0  0  0  0  0  0  0  0  0
   11.5214    1.8116    1.1348 C   0  0  0  0  0  0  0  0  0  0  0  0
    0.7248   -1.4699   -2.0319 C   0  0  0  0  0  0  0  0  0  0  0  0
    0.5638    0.8531   -2.6121 C   0  0  0  0  0  0  0  0  0  0  0  0
    1.3048   -0.3346   -2.6061 C   0  0  0  0  0  0  0  0  0  0  0  0
    7.3480   -0.5007   -0.5031 C   0  0  0  0  0  0  0  0  0  0  0  0
    2.6720   -0.2907   -3.1952 C   0  0  0  0  0  0  0  0  0  0  0  0
    6.9097   -1.8362   -0.6823 C   0  0  0  0  0  0  0  0  0  0  0  0
    7.0106    0.4042   -1.5242 C   0  0  0  0  0  0  0  0  0  0  0  0
    5.7580   -1.2842   -2.7268 C   0  0  0  0  0  0  0  0  0  0  0  0
    6.1151   -2.2341   -1.7725 C   0  0  0  0  0  0  0  0  0  0  0  0
    6.2233    0.0252   -2.6197 C   0  0  0  0  0  0  0  0  0  0  0  0
    2.1338   -2.9787   -0.8864 C   0  0  0  0  0  0  0  0  0  0  0  0
    2.6763   -4.2668   -0.8714 C   0  0  0  0  0  0  0  0  0  0  0  0
    2.4411   -2.1131    0.1629 C   0  0  0  0  0  0  0  0  0  0  0  0
    3.5017   -4.6192    0.2073 C   0  0  0  0  0  0  0  0  0  0  0  0
    3.7309   -3.6529    1.1802 C   0  0  0  0  0  0  0  0  0  0  0  0
    4.2287   -5.7757    0.5948 C   0  0  0  0  0  0  0  0  0  0  0  0
    4.8736   -5.4848    1.7786 C   0  0  0  0  0  0  0  0  0  0  0  0
    8.0529   -0.7303    1.3715 H   0  0  0  0  0  0  0  0  0  0  0  0
    2.6982   -2.3822   -3.4913 H   0  0  0  0  0  0  0  0  0  0  0  0
    4.9153   -3.6859    2.9218 H   0  0  0  0  0  0  0  0  0  0  0  0
   -7.5663    4.1889    2.6916 H   0  0  0  0  0  0  0  0  0  0  0  0
   -7.3054    4.1272    0.9565 H   0  0  0  0  0  0  0  0  0  0  0  0
   -9.1991    3.0642   -0.5984 H   0  0  0  0  0  0  0  0  0  0  0  0
  -10.4450    2.1391    0.2300 H   0  0  0  0  0  0  0  0  0  0  0  0
   -7.0545    1.8883    2.9809 H   0  0  0  0  0  0  0  0  0  0  0  0
   -5.8787    2.4987    1.8259 H   0  0  0  0  0  0  0  0  0  0  0  0
   -6.8105   -0.8789    0.3963 H   0  0  0  0  0  0  0  0  0  0  0  0
   -6.4258   -0.4290    2.0397 H   0  0  0  0  0  0  0  0  0  0  0  0
   -9.4814    5.2269    0.4797 H   0  0  0  0  0  0  0  0  0  0  0  0
  -10.9889    4.5663    1.1285 H   0  0  0  0  0  0  0  0  0  0  0  0
   -9.8220    5.3425    2.2114 H   0  0  0  0  0  0  0  0  0  0  0  0
  -10.9696    2.5569    2.6315 H   0  0  0  0  0  0  0  0  0  0  0  0
   -9.7404    3.2664    3.6867 H   0  0  0  0  0  0  0  0  0  0  0  0
   -9.4884    1.6673    2.9779 H   0  0  0  0  0  0  0  0  0  0  0  0
   -4.5224   -1.7743    0.3824 H   0  0  0  0  0  0  0  0  0  0  0  0
   -4.1580   -1.0806    1.9688 H   0  0  0  0  0  0  0  0  0  0  0  0
   -5.3622   -0.2454   -1.4308 H   0  0  0  0  0  0  0  0  0  0  0  0
   -5.5733    1.4732   -1.0625 H   0  0  0  0  0  0  0  0  0  0  0  0
   -2.1226   -1.5302    0.6695 H   0  0  0  0  0  0  0  0  0  0  0  0
   -2.2625    0.1881    1.0692 H   0  0  0  0  0  0  0  0  0  0  0  0
   -3.1700    1.8026   -0.7941 H   0  0  0  0  0  0  0  0  0  0  0  0
   -3.5391    1.0669   -2.3736 H   0  0  0  0  0  0  0  0  0  0  0  0
   -9.9086   -0.9594    0.8658 H   0  0  0  0  0  0  0  0  0  0  0  0
   -8.0321    1.1208   -2.4137 H   0  0  0  0  0  0  0  0  0  0  0  0
  -10.6347   -2.7428   -0.6852 H   0  0  0  0  0  0  0  0  0  0  0  0
   -8.7606   -0.6658   -3.9596 H   0  0  0  0  0  0  0  0  0  0  0  0
    8.7775    0.7792    2.9687 H   0  0  0  0  0  0  0  0  0  0  0  0
   -1.0199   -2.3393   -1.1287 H   0  0  0  0  0  0  0  0  0  0  0  0
   -1.2525    1.8491   -2.1046 H   0  0  0  0  0  0  0  0  0  0  0  0
    8.3182    3.2820    2.7228 H   0  0  0  0  0  0  0  0  0  0  0  0
    9.7190    2.8304    3.6951 H   0  0  0  0  0  0  0  0  0  0  0  0
   11.1499    0.7570    2.9582 H   0  0  0  0  0  0  0  0  0  0  0  0
   10.6791   -0.1422    1.5196 H   0  0  0  0  0  0  0  0  0  0  0  0
    7.3979    1.7172    1.1124 H   0  0  0  0  0  0  0  0  0  0  0  0
    8.8425    1.8176    0.0867 H   0  0  0  0  0  0  0  0  0  0  0  0
   10.3423    4.6854    2.2490 H   0  0  0  0  0  0  0  0  0  0  0  0
    9.8293    3.8290    0.7955 H   0  0  0  0  0  0  0  0  0  0  0  0
   12.5562    1.4559    1.0984 H   0  0  0  0  0  0  0  0  0  0  0  0
   11.1640    1.8775    0.1014 H   0  0  0  0  0  0  0  0  0  0  0  0
    0.9843    1.7624   -3.0407 H   0  0  0  0  0  0  0  0  0  0  0  0
    7.3561    1.4344   -1.4991 H   0  0  0  0  0  0  0  0  0  0  0  0
    5.7898   -3.2680   -1.8730 H   0  0  0  0  0  0  0  0  0  0  0  0
    5.9753    0.7642   -3.3815 H   0  0  0  0  0  0  0  0  0  0  0  0
    2.4706   -4.9755   -1.6672 H   0  0  0  0  0  0  0  0  0  0  0  0
    2.0440   -1.1022    0.2027 H   0  0  0  0  0  0  0  0  0  0  0  0
    4.2866   -6.7168    0.0630 H   0  0  0  0  0  0  0  0  0  0  0  0
    5.5372   -6.0759    2.3960 H   0  0  0  0  0  0  0  0  0  0  0  0
  1 39  1  0
  2  6  2  0
  2  7  2  0
  2 13  1  0
  2 52  1  0
  3 43  1  0
  3 44  1  0
  4 45  1  0
  4 55  1  0
  5 49  2  0
  8 14  1  0
  9 14  2  0
 10 23  1  0
 10 26  1  0
 10 27  1  0
 11 29  1  0
 11 30  1  0
 11 33  1  0
 12 42  1  0
 12 48  1  0
 13 49  1  0
 14 50  1  0
 15 57  2  0
 15 59  1  0
 16 59  1  0
 16 61  1  0
 17 18  1  0
 17 19  1  0
 17 24  1  0
 17 25  1  0
 18 20  1  0
 19 22  1  0
 20 21  1  0
 21 22  2  0
 21 23  1  0
 22 28  1  0
 26 29  1  0
 27 30  1  0
 28 31  2  0
 28 32  1  0
 31 34  1  0
 32 35  2  0
 33 37  2  0
 33 38  1  0
 34 39  2  0
 35 39  1  0
 36 40  1  0
 36 41  1  0
 36 42  1  0
 37 45  1  0
 38 46  2  0
 40 43  1  0
 41 44  1  0
 45 47  2  0
 46 47  1  0
 47 49  1  0
 48 50  2  0
 48 51  1  0
 50 53  1  0
 51 54  2  0
 52 53  2  0
 52 54  1  0
 55 56  2  0
 55 57  1  0
 56 58  1  0
 58 59  2  0
 58 60  1  0
 60 61  2  0
 12 62  1  0
 13 63  1  0
 16 64  1  0
 18 65  1  0
 18 66  1  0
 19 67  1  0
 19 68  1  0
 20 69  1  0
 20 70  1  0
 23 71  1  0
 23 72  1  0
 24 73  1  0
 24 74  1  0
 24 75  1  0
 25 76  1  0
 25 77  1  0
 25 78  1  0
 26 79  1  0
 26 80  1  0
 27 81  1  0
 27 82  1  0
 29 83  1  0
 29 84  1  0
 30 85  1  0
 30 86  1  0
 31 87  1  0
 32 88  1  0
 34 89  1  0
 35 90  1  0
 36 91  1  0
 37 92  1  0
 38 93  1  0
 40 94  1  0
 40 95  1  0
 41 96  1  0
 41 97  1  0
 42 98  1  0
 42 99  1  0
 43100  1  0
 43101  1  0
 44102  1  0
 44103  1  0
 46104  1  0
 51105  1  0
 53106  1  0
 54107  1  0
 56108  1  0
 57109  1  0
 60110  1  0
 61111  1  0
M  CHG  2   8  -1  14   1
M  END
>  <PUBCHEM_COMPOUND_CID>  (1) 
49846579

>  <PUBCHEM_COMPOUND_CANONICALIZED>  (1) 
1

>  <PUBCHEM_CACTVS_COMPLEXITY>  (1) 
1640

>  <PUBCHEM_CACTVS_HBOND_ACCEPTOR>  (1) 
11

>  <PUBCHEM_CACTVS_HBOND_DONOR>  (1) 
3

>  <PUBCHEM_CACTVS_ROTATABLE_BOND>  (1) 
12

>  <PUBCHEM_CACTVS_SUBSKEYS>  (1) 
AAADcfB/uABEAAAAAAAAAAAAAAAAAWAAAAA8eNECAAAAAFgB/AAAHgYUQAAADw7h2yY/99/Z1AKpAjd3d3TCiDm1Z6Ap2bk/ftqObvbFv5uXOWzu8JvY6ae42eOfDAQAAiAIACAYCAAEQBAAQAAAAAAAAA==

>  <PUBCHEM_IUPAC_OPENEYE_NAME>  (1) 
4-[4-[[2-(4-chlorophenyl)-4,4-dimethyl-cyclohexen-1-yl]methyl]piperazin-1-yl]-N-[3-nitro-4-(tetrahydropyran-4-ylmethylamino)phenyl]sulfonyl-2-(1H-pyrrolo[2,3-b]pyridin-5-yloxy)benzamide

>  <PUBCHEM_IUPAC_CAS_NAME>  (1) 
4-[4-[[2-(4-chlorophenyl)-4,4-dimethyl-1-cyclohexenyl]methyl]-1-piperazinyl]-N-[3-nitro-4-(4-oxanylmethylamino)phenyl]sulfonyl-2-(1H-pyrrolo[2,3-b]pyridin-5-yloxy)benzamide

>  <PUBCHEM_IUPAC_NAME_MARKUP>  (1) 
4-[4-[[2-(4-chlorophenyl)-4,4-dimethylcyclohexen-1-yl]methyl]piperazin-1-yl]-<I>N</I>-[3-nitro-4-(oxan-4-ylmethylamino)phenyl]sulfonyl-2-(1<I>H</I>-pyrrolo[2,3-b]pyridin-5-yloxy)benzamide

>  <PUBCHEM_IUPAC_NAME>  (1) 
4-[4-[[2-(4-chlorophenyl)-4,4-dimethylcyclohexen-1-yl]methyl]piperazin-1-yl]-N-[3-nitro-4-(oxan-4-ylmethylamino)phenyl]sulfonyl-2-(1H-pyrrolo[2,3-b]pyridin-5-yloxy)benzamide

>  <PUBCHEM_IUPAC_SYSTEMATIC_NAME>  (1) 
4-[4-[[2-(4-chlorophenyl)-4,4-dimethyl-cyclohexen-1-yl]methyl]piperazin-1-yl]-N-[3-nitro-4-(oxan-4-ylmethylamino)phenyl]sulfonyl-2-(1H-pyrrolo[2,3-b]pyridin-5-yloxy)benzamide

>  <PUBCHEM_IUPAC_TRADITIONAL_NAME>  (1) 
4-[4-[[2-(4-chlorophenyl)-4,4-dimethyl-cyclohexen-1-yl]methyl]piperazino]-N-[3-nitro-4-(tetrahydropyran-4-ylmethylamino)phenyl]sulfonyl-2-(1H-pyrrolo[2,3-b]pyridin-5-yloxy)benzamide

>  <PUBCHEM_IUPAC_INCHI>  (1) 
InChI=1S/C45H50ClN7O7S/c1-45(2)15-11-33(39(26-45)31-3-5-34(46)6-4-31)29-51-17-19-52(20-18-51)35-7-9-38(42(24-35)60-36-23-32-12-16-47-43(32)49-28-36)44(54)50-61(57,58)37-8-10-40(41(25-37)53(55)56)48-27-30-13-21-59-22-14-30/h3-10,12,16,23-25,28,30,48H,11,13-15,17-22,26-27,29H2,1-2H3,(H,47,49)(H,50,54)

>  <PUBCHEM_IUPAC_INCHIKEY>  (1) 
LQBVNQSMGBZMKD-UHFFFAOYSA-N

>  <PUBCHEM_XLOGP3_AA>  (1) 
8.2

>  <PUBCHEM_EXACT_MASS>  (1) 
867.3180958

>  <PUBCHEM_MOLECULAR_FORMULA>  (1) 
C45H50ClN7O7S

>  <PUBCHEM_MOLECULAR_WEIGHT>  (1) 
868.4

>  <PUBCHEM_SMILES>  (1) 
CC1(CCC(=C(C1)C2=CC=C(C=C2)Cl)CN3CCN(CC3)C4=CC(=C(C=C4)C(=O)NS(=O)(=O)C5=CC(=C(C=C5)NCC6CCOCC6)[N+](=O)[O-])OC7=CN=C8C(=C7)C=CN8)C

>  <PUBCHEM_CONNECTIVITY_SMILES>  (1) 
CC1(CCC(=C(C1)C2=CC=C(C=C2)Cl)CN3CCN(CC3)C4=CC(=C(C=C4)C(=O)NS(=O)(=O)C5=CC(=C(C=C5)NCC6CCOCC6)[N+](=O)[O-])OC7=CN=C8C(=C7)C=CN8)C

>  <PUBCHEM_CACTVS_TPSA>  (1) 
183

>  <PUBCHEM_MONOISOTOPIC_WEIGHT>  (1) 
867.3180958

>  <PUBCHEM_TOTAL_CHARGE>  (1) 
0

>  <PUBCHEM_HEAVY_ATOM_COUNT>  (1) 
61

>  <PUBCHEM_ATOM_DEF_STEREO_COUNT>  (1) 
0

>  <PUBCHEM_ATOM_UDEF_STEREO_COUNT>  (1) 
0

>  <PUBCHEM_BOND_DEF_STEREO_COUNT>  (1) 
0

>  <PUBCHEM_BOND_UDEF_STEREO_COUNT>  (1) 
0

>  <PUBCHEM_ISOTOPIC_ATOM_COUNT>  (1) 
0

>  <PUBCHEM_COMPONENT_COUNT>  (1) 
1

>  <PUBCHEM_CACTVS_TAUTO_COUNT>  (1) 
-1

>  <PUBCHEM_COORDINATE_TYPE>  (1) 
1
5
255

>  <PUBCHEM_BONDANNOTATIONS>  (1) 
15  57  8
15  59  8
16  59  8
16  61  8
28  31  8
28  32  8
31  34  8
32  35  8
33  37  8
33  38  8
34  39  8
35  39  8
37  45  8
38  46  8
45  47  8
46  47  8
48  50  8
48  51  8
50  53  8
51  54  8
52  53  8
52  54  8
55  56  8
55  57  8
56  58  8
58  59  8
58  60  8
60  61  8

>  <source_file>  (1) 
structures/raw/venetoclax_pubchem_cid49846579_2d.sdf

>  <prep_method>  (1) 
RDKit ETKDGv3 + MMFF94

>  <rdkit_version>  (1) 
2024.03.2

>  <random_seed>  (1) 
20260922

>  <conformers_requested>  (1) 
100

>  <num_conformers_generated>  (1) 
100

>  <num_conformers_converged>  (1) 
100

>  <selected_conf_id>  (1) 
24

>  <selected_energy_kcal_mol>  (1) 
124.035453

>  <formula>  (1) 
C45H50ClN7O7S

>  <canonical_smiles_noH>  (1) 
CC1(C)CCC(CN2CCN(c3ccc(C(=O)NS(=O)(=O)c4ccc(NCC5CCOCC5)c([N+](=O)[O-])c4)c(Oc4cnc5[nH]ccc5c4)c3)CC2)=C(c2ccc(Cl)cc2)C1

$$$$
