49846579
  -OEChem-09212623162D

111118  0     0  0  0  0  0  0999 V2000
    8.1962   -9.7500    0.0000 Cl  0  0  0  0  0  0  0  0  0  0  0  0
    4.7321    2.2500    0.0000 S   0  0  0  0  0  0  0  0  0  0  0  0
    3.8660    9.7500    0.0000 O   0  0  0  0  0  0  0  0  0  0  0  0
    7.3301   -0.2500    0.0000 O   0  0  0  0  0  0  0  0  0  0  0  0
    6.4641    1.2500    0.0000 O   0  0  0  0  0  0  0  0  0  0  0  0
    3.7321    2.2500    0.0000 O   0  0  0  0  0  0  0  0  0  0  0  0
    5.7321    2.2500    0.0000 O   0  0  0  0  0  0  0  0  0  0  0  0
    7.3301    4.7500    0.0000 O   0  5  0  0  0  0  0  0  0  0  0  0
    6.4641    6.2500    0.0000 O   0  0  0  0  0  0  0  0  0  0  0  0
    5.5981   -5.2500    0.0000 N   0  0  0  0  0  0  0  0  0  0  0  0
    5.5981   -3.2500    0.0000 N   0  0  0  0  0  0  0  0  0  0  0  0
    4.7321    6.2500    0.0000 N   0  0  0  0  0  0  0  0  0  0  0  0
    4.7321    1.2500    0.0000 N   0  0  0  0  0  0  0  0  0  0  0  0
    6.4641    5.2500    0.0000 N   0  3  0  0  0  0  0  0  0  0  0  0
    9.0622   -2.2500    0.0000 N   0  0  0  0  0  0  0  0  0  0  0  0
   10.8744   -2.0547    0.0000 N   0  0  0  0  0  0  0  0  0  0  0  0
    3.0000   -7.7500    0.0000 C   0  0  0  0  0  0  0  0  0  0  0  0
    3.0000   -6.7500    0.0000 C   0  0  0  0  0  0  0  0  0  0  0  0
    3.8660   -8.2500    0.0000 C   0  0  0  0  0  0  0  0  0  0  0  0
    3.8660   -6.2500    0.0000 C   0  0  0  0  0  0  0  0  0  0  0  0
    4.7321   -6.7500    0.0000 C   0  0  0  0  0  0  0  0  0  0  0  0
    4.7321   -7.7500    0.0000 C   0  0  0  0  0  0  0  0  0  0  0  0
    5.5981   -6.2500    0.0000 C   0  0  0  0  0  0  0  0  0  0  0  0
    2.0000   -7.7500    0.0000 C   0  0  0  0  0  0  0  0  0  0  0  0
    2.5000   -8.6160    0.0000 C   0  0  0  0  0  0  0  0  0  0  0  0
    6.4641   -4.7500    0.0000 C   0  0  0  0  0  0  0  0  0  0  0  0
    4.7321   -4.7500    0.0000 C   0  0  0  0  0  0  0  0  0  0  0  0
    5.5981   -8.2500    0.0000 C   0  0  0  0  0  0  0  0  0  0  0  0
    6.4641   -3.7500    0.0000 C   0  0  0  0  0  0  0  0  0  0  0  0
    4.7321   -3.7500    0.0000 C   0  0  0  0  0  0  0  0  0  0  0  0
    6.4641   -7.7500    0.0000 C   0  0  0  0  0  0  0  0  0  0  0  0
    5.5981   -9.2500    0.0000 C   0  0  0  0  0  0  0  0  0  0  0  0
    5.5981   -2.2500    0.0000 C   0  0  0  0  0  0  0  0  0  0  0  0
    7.3301   -8.2500    0.0000 C   0  0  0  0  0  0  0  0  0  0  0  0
    6.4641   -9.7500    0.0000 C   0  0  0  0  0  0  0  0  0  0  0  0
    3.8660    7.7500    0.0000 C   0  0  0  0  0  0  0  0  0  0  0  0
    6.4641   -1.7500    0.0000 C   0  0  0  0  0  0  0  0  0  0  0  0
    4.7321   -1.7500    0.0000 C   0  0  0  0  0  0  0  0  0  0  0  0
    7.3301   -9.2500    0.0000 C   0  0  0  0  0  0  0  0  0  0  0  0
    3.0000    8.2500    0.0000 C   0  0  0  0  0  0  0  0  0  0  0  0
    4.7321    8.2500    0.0000 C   0  0  0  0  0  0  0  0  0  0  0  0
    3.8660    6.7500    0.0000 C   0  0  0  0  0  0  0  0  0  0  0  0
    3.0000    9.2500    0.0000 C   0  0  0  0  0  0  0  0  0  0  0  0
    4.7321    9.2500    0.0000 C   0  0  0  0  0  0  0  0  0  0  0  0
    6.4641   -0.7500    0.0000 C   0  0  0  0  0  0  0  0  0  0  0  0
    4.7321   -0.7500    0.0000 C   0  0  0  0  0  0  0  0  0  0  0  0
    5.5981   -0.2500    0.0000 C   0  0  0  0  0  0  0  0  0  0  0  0
    4.7321    5.2500    0.0000 C   0  0  0  0  0  0  0  0  0  0  0  0
    5.5981    0.7500    0.0000 C   0  0  0  0  0  0  0  0  0  0  0  0
    5.5981    4.7500    0.0000 C   0  0  0  0  0  0  0  0  0  0  0  0
    3.8660    4.7500    0.0000 C   0  0  0  0  0  0  0  0  0  0  0  0
    4.7321    3.2500    0.0000 C   0  0  0  0  0  0  0  0  0  0  0  0
    5.5981    3.7500    0.0000 C   0  0  0  0  0  0  0  0  0  0  0  0
    3.8660    3.7500    0.0000 C   0  0  0  0  0  0  0  0  0  0  0  0
    8.1962   -0.7500    0.0000 C   0  0  0  0  0  0  0  0  0  0  0  0
    9.0622   -0.2500    0.0000 C   0  0  0  0  0  0  0  0  0  0  0  0
    8.1962   -1.7500    0.0000 C   0  0  0  0  0  0  0  0  0  0  0  0
    9.9282   -0.7500    0.0000 C   0  0  0  0  0  0  0  0  0  0  0  0
    9.9282   -1.7500    0.0000 C   0  0  0  0  0  0  0  0  0  0  0  0
   10.8744   -0.4453    0.0000 C   0  0  0  0  0  0  0  0  0  0  0  0
   11.4580   -1.2500    0.0000 C   0  0  0  0  0  0  0  0  0  0  0  0
    2.7880   -6.1674    0.0000 H   0  0  0  0  0  0  0  0  0  0  0  0
    2.3894   -6.8577    0.0000 H   0  0  0  0  0  0  0  0  0  0  0  0
    3.4675   -8.7250    0.0000 H   0  0  0  0  0  0  0  0  0  0  0  0
    4.2646   -8.7250    0.0000 H   0  0  0  0  0  0  0  0  0  0  0  0
    4.2646   -5.7751    0.0000 H   0  0  0  0  0  0  0  0  0  0  0  0
    3.4675   -5.7751    0.0000 H   0  0  0  0  0  0  0  0  0  0  0  0
    5.8101   -6.8326    0.0000 H   0  0  0  0  0  0  0  0  0  0  0  0
    6.2087   -6.1423    0.0000 H   0  0  0  0  0  0  0  0  0  0  0  0
    2.0000   -7.1300    0.0000 H   0  0  0  0  0  0  0  0  0  0  0  0
    1.3800   -7.7500    0.0000 H   0  0  0  0  0  0  0  0  0  0  0  0
    2.0000   -8.3700    0.0000 H   0  0  0  0  0  0  0  0  0  0  0  0
    1.9631   -8.3060    0.0000 H   0  0  0  0  0  0  0  0  0  0  0  0
    2.1900   -9.1530    0.0000 H   0  0  0  0  0  0  0  0  0  0  0  0
    3.0369   -8.9260    0.0000 H   0  0  0  0  0  0  0  0  0  0  0  0
    6.6762   -5.3326    0.0000 H   0  0  0  0  0  0  0  0  0  0  0  0
    7.0747   -4.6423    0.0000 H   0  0  0  0  0  0  0  0  0  0  0  0
    4.1215   -4.6423    0.0000 H   0  0  0  0  0  0  0  0  0  0  0  0
    4.5200   -5.3326    0.0000 H   0  0  0  0  0  0  0  0  0  0  0  0
    7.0747   -3.8577    0.0000 H   0  0  0  0  0  0  0  0  0  0  0  0
    6.6762   -3.1674    0.0000 H   0  0  0  0  0  0  0  0  0  0  0  0
    4.5200   -3.1674    0.0000 H   0  0  0  0  0  0  0  0  0  0  0  0
    4.1215   -3.8577    0.0000 H   0  0  0  0  0  0  0  0  0  0  0  0
    6.4641   -7.1300    0.0000 H   0  0  0  0  0  0  0  0  0  0  0  0
    5.0611   -9.5600    0.0000 H   0  0  0  0  0  0  0  0  0  0  0  0
    7.8671   -7.9400    0.0000 H   0  0  0  0  0  0  0  0  0  0  0  0
    6.4641  -10.3700    0.0000 H   0  0  0  0  0  0  0  0  0  0  0  0
    4.4030    7.4400    0.0000 H   0  0  0  0  0  0  0  0  0  0  0  0
    7.0010   -2.0600    0.0000 H   0  0  0  0  0  0  0  0  0  0  0  0
    4.1951   -2.0600    0.0000 H   0  0  0  0  0  0  0  0  0  0  0  0
    2.3894    8.3577    0.0000 H   0  0  0  0  0  0  0  0  0  0  0  0
    2.7880    7.6674    0.0000 H   0  0  0  0  0  0  0  0  0  0  0  0
    4.9441    7.6674    0.0000 H   0  0  0  0  0  0  0  0  0  0  0  0
    5.3426    8.3577    0.0000 H   0  0  0  0  0  0  0  0  0  0  0  0
    3.2554    6.8577    0.0000 H   0  0  0  0  0  0  0  0  0  0  0  0
    3.6540    6.1674    0.0000 H   0  0  0  0  0  0  0  0  0  0  0  0
    2.7880    9.8326    0.0000 H   0  0  0  0  0  0  0  0  0  0  0  0
    2.3894    9.1423    0.0000 H   0  0  0  0  0  0  0  0  0  0  0  0
    5.3426    9.1423    0.0000 H   0  0  0  0  0  0  0  0  0  0  0  0
    4.9441    9.8326    0.0000 H   0  0  0  0  0  0  0  0  0  0  0  0
    4.1951   -0.4400    0.0000 H   0  0  0  0  0  0  0  0  0  0  0  0
    5.2690    6.5600    0.0000 H   0  0  0  0  0  0  0  0  0  0  0  0
    4.1951    0.9400    0.0000 H   0  0  0  0  0  0  0  0  0  0  0  0
    3.3291    5.0600    0.0000 H   0  0  0  0  0  0  0  0  0  0  0  0
    6.1350    3.4400    0.0000 H   0  0  0  0  0  0  0  0  0  0  0  0
    3.3291    3.4400    0.0000 H   0  0  0  0  0  0  0  0  0  0  0  0
    9.0622    0.3700    0.0000 H   0  0  0  0  0  0  0  0  0  0  0  0
    7.6592   -2.0600    0.0000 H   0  0  0  0  0  0  0  0  0  0  0  0
   11.0670    0.1441    0.0000 H   0  0  0  0  0  0  0  0  0  0  0  0
   11.0670   -2.6441    0.0000 H   0  0  0  0  0  0  0  0  0  0  0  0
   12.0780   -1.2500    0.0000 H   0  0  0  0  0  0  0  0  0  0  0  0
  1 39  1  0  0  0  0
  2  6  2  0  0  0  0
  2  7  2  0  0  0  0
  2 13  1  0  0  0  0
  2 52  1  0  0  0  0
  3 43  1  0  0  0  0
  3 44  1  0  0  0  0
  4 45  1  0  0  0  0
  4 55  1  0  0  0  0
  5 49  2  0  0  0  0
  8 14  1  0  0  0  0
  9 14  2  0  0  0  0
 10 23  1  0  0  0  0
 10 26  1  0  0  0  0
 10 27  1  0  0  0  0
 11 29  1  0  0  0  0
 11 30  1  0  0  0  0
 11 33  1  0  0  0  0
 12 42  1  0  0  0  0
 12 48  1  0  0  0  0
 12102  1  0  0  0  0
 13 49  1  0  0  0  0
 13103  1  0  0  0  0
 14 50  1  0  0  0  0
 15 57  1  0  0  0  0
 15 59  2  0  0  0  0
 16 59  1  0  0  0  0
 16 61  1  0  0  0  0
 16110  1  0  0  0  0
 17 18  1  0  0  0  0
 17 19  1  0  0  0  0
 17 24  1  0  0  0  0
 17 25  1  0  0  0  0
 18 20  1  0  0  0  0
 18 62  1  0  0  0  0
 18 63  1  0  0  0  0
 19 22  1  0  0  0  0
 19 64  1  0  0  0  0
 19 65  1  0  0  0  0
 20 21  1  0  0  0  0
 20 66  1  0  0  0  0
 20 67  1  0  0  0  0
 21 22  2  0  0  0  0
 21 23  1  0  0  0  0
 22 28  1  0  0  0  0
 23 68  1  0  0  0  0
 23 69  1  0  0  0  0
 24 70  1  0  0  0  0
 24 71  1  0  0  0  0
 24 72  1  0  0  0  0
 25 73  1  0  0  0  0
 25 74  1  0  0  0  0
 25 75  1  0  0  0  0
 26 29  1  0  0  0  0
 26 76  1  0  0  0  0
 26 77  1  0  0  0  0
 27 30  1  0  0  0  0
 27 78  1  0  0  0  0
 27 79  1  0  0  0  0
 28 31  2  0  0  0  0
 28 32  1  0  0  0  0
 29 80  1  0  0  0  0
 29 81  1  0  0  0  0
 30 82  1  0  0  0  0
 30 83  1  0  0  0  0
 31 34  1  0  0  0  0
 31 84  1  0  0  0  0
 32 35  2  0  0  0  0
 32 85  1  0  0  0  0
 33 37  2  0  0  0  0
 33 38  1  0  0  0  0
 34 39  2  0  0  0  0
 34 86  1  0  0  0  0
 35 39  1  0  0  0  0
 35 87  1  0  0  0  0
 36 40  1  0  0  0  0
 36 41  1  0  0  0  0
 36 42  1  0  0  0  0
 36 88  1  0  0  0  0
 37 45  1  0  0  0  0
 37 89  1  0  0  0  0
 38 46  2  0  0  0  0
 38 90  1  0  0  0  0
 40 43  1  0  0  0  0
 40 91  1  0  0  0  0
 40 92  1  0  0  0  0
 41 44  1  0  0  0  0
 41 93  1  0  0  0  0
 41 94  1  0  0  0  0
 42 95  1  0  0  0  0
 42 96  1  0  0  0  0
 43 97  1  0  0  0  0
 43 98  1  0  0  0  0
 44 99  1  0  0  0  0
 44100  1  0  0  0  0
 45 47  2  0  0  0  0
 46 47  1  0  0  0  0
 46101  1  0  0  0  0
 47 49  1  0  0  0  0
 48 50  2  0  0  0  0
 48 51  1  0  0  0  0
 50 53  1  0  0  0  0
 51 54  2  0  0  0  0
 51104  1  0  0  0  0
 52 53  2  0  0  0  0
 52 54  1  0  0  0  0
 53105  1  0  0  0  0
 54106  1  0  0  0  0
 55 56  1  0  0  0  0
 55 57  2  0  0  0  0
 56 58  2  0  0  0  0
 56107  1  0  0  0  0
 57108  1  0  0  0  0
 58 59  1  0  0  0  0
 58 60  1  0  0  0  0
 60 61  2  0  0  0  0
 60109  1  0  0  0  0
 61111  1  0  0  0  0
M  CHG  2   8  -1  14   1
M  END
> <PUBCHEM_COMPOUND_CID>
49846579

> <PUBCHEM_COMPOUND_CANONICALIZED>
1

> <PUBCHEM_CACTVS_COMPLEXITY>
1640

> <PUBCHEM_CACTVS_HBOND_ACCEPTOR>
11

> <PUBCHEM_CACTVS_HBOND_DONOR>
3

> <PUBCHEM_CACTVS_ROTATABLE_BOND>
12

> <PUBCHEM_CACTVS_SUBSKEYS>
AAADcfB/uABEAAAAAAAAAAAAAAAAAWAAAAA8eNECAAAAAFgB/AAAHgYUQAAADw7h2yY/99/Z1AKpAjd3d3TCiDm1Z6Ap2bk/ftqObvbFv5uXOWzu8JvY6ae42eOfDAQAAiAIACAYCAAEQBAAQAAAAAAAAA==

> <PUBCHEM_IUPAC_OPENEYE_NAME>
4-[4-[[2-(4-chlorophenyl)-4,4-dimethyl-cyclohexen-1-yl]methyl]piperazin-1-yl]-N-[3-nitro-4-(tetrahydropyran-4-ylmethylamino)phenyl]sulfonyl-2-(1H-pyrrolo[2,3-b]pyridin-5-yloxy)benzamide

> <PUBCHEM_IUPAC_CAS_NAME>
4-[4-[[2-(4-chlorophenyl)-4,4-dimethyl-1-cyclohexenyl]methyl]-1-piperazinyl]-N-[3-nitro-4-(4-oxanylmethylamino)phenyl]sulfonyl-2-(1H-pyrrolo[2,3-b]pyridin-5-yloxy)benzamide

> <PUBCHEM_IUPAC_NAME_MARKUP>
4-[4-[[2-(4-chlorophenyl)-4,4-dimethylcyclohexen-1-yl]methyl]piperazin-1-yl]-<I>N</I>-[3-nitro-4-(oxan-4-ylmethylamino)phenyl]sulfonyl-2-(1<I>H</I>-pyrrolo[2,3-b]pyridin-5-yloxy)benzamide

> <PUBCHEM_IUPAC_NAME>
4-[4-[[2-(4-chlorophenyl)-4,4-dimethylcyclohexen-1-yl]methyl]piperazin-1-yl]-N-[3-nitro-4-(oxan-4-ylmethylamino)phenyl]sulfonyl-2-(1H-pyrrolo[2,3-b]pyridin-5-yloxy)benzamide

> <PUBCHEM_IUPAC_SYSTEMATIC_NAME>
4-[4-[[2-(4-chlorophenyl)-4,4-dimethyl-cyclohexen-1-yl]methyl]piperazin-1-yl]-N-[3-nitro-4-(oxan-4-ylmethylamino)phenyl]sulfonyl-2-(1H-pyrrolo[2,3-b]pyridin-5-yloxy)benzamide

> <PUBCHEM_IUPAC_TRADITIONAL_NAME>
4-[4-[[2-(4-chlorophenyl)-4,4-dimethyl-cyclohexen-1-yl]methyl]piperazino]-N-[3-nitro-4-(tetrahydropyran-4-ylmethylamino)phenyl]sulfonyl-2-(1H-pyrrolo[2,3-b]pyridin-5-yloxy)benzamide

> <PUBCHEM_IUPAC_INCHI>
InChI=1S/C45H50ClN7O7S/c1-45(2)15-11-33(39(26-45)31-3-5-34(46)6-4-31)29-51-17-19-52(20-18-51)35-7-9-38(42(24-35)60-36-23-32-12-16-47-43(32)49-28-36)44(54)50-61(57,58)37-8-10-40(41(25-37)53(55)56)48-27-30-13-21-59-22-14-30/h3-10,12,16,23-25,28,30,48H,11,13-15,17-22,26-27,29H2,1-2H3,(H,47,49)(H,50,54)

> <PUBCHEM_IUPAC_INCHIKEY>
LQBVNQSMGBZMKD-UHFFFAOYSA-N

> <PUBCHEM_XLOGP3_AA>
8.2

> <PUBCHEM_EXACT_MASS>
867.3180958

> <PUBCHEM_MOLECULAR_FORMULA>
C45H50ClN7O7S

> <PUBCHEM_MOLECULAR_WEIGHT>
868.4

> <PUBCHEM_SMILES>
CC1(CCC(=C(C1)C2=CC=C(C=C2)Cl)CN3CCN(CC3)C4=CC(=C(C=C4)C(=O)NS(=O)(=O)C5=CC(=C(C=C5)NCC6CCOCC6)[N+](=O)[O-])OC7=CN=C8C(=C7)C=CN8)C

> <PUBCHEM_CONNECTIVITY_SMILES>
CC1(CCC(=C(C1)C2=CC=C(C=C2)Cl)CN3CCN(CC3)C4=CC(=C(C=C4)C(=O)NS(=O)(=O)C5=CC(=C(C=C5)NCC6CCOCC6)[N+](=O)[O-])OC7=CN=C8C(=C7)C=CN8)C

> <PUBCHEM_CACTVS_TPSA>
183

> <PUBCHEM_MONOISOTOPIC_WEIGHT>
867.3180958

> <PUBCHEM_TOTAL_CHARGE>
0

> <PUBCHEM_HEAVY_ATOM_COUNT>
61

> <PUBCHEM_ATOM_DEF_STEREO_COUNT>
0

> <PUBCHEM_ATOM_UDEF_STEREO_COUNT>
0

> <PUBCHEM_BOND_DEF_STEREO_COUNT>
0

> <PUBCHEM_BOND_UDEF_STEREO_COUNT>
0

> <PUBCHEM_ISOTOPIC_ATOM_COUNT>
0

> <PUBCHEM_COMPONENT_COUNT>
1

> <PUBCHEM_CACTVS_TAUTO_COUNT>
-1

> <PUBCHEM_COORDINATE_TYPE>
1
5
255

> <PUBCHEM_BONDANNOTATIONS>
15  57  8
15  59  8
16  59  8
16  61  8
28  31  8
28  32  8
31  34  8
32  35  8
33  37  8
33  38  8
34  39  8
35  39  8
37  45  8
38  46  8
45  47  8
46  47  8
48  50  8
48  51  8
50  53  8
51  54  8
52  53  8
52  54  8
55  56  8
55  57  8
56  58  8
58  59  8
58  60  8
60  61  8

$$$$
